FCG18066182_QVINA2_10
     RDKit          3D

 34 35  0  0  0  0  0  0  0  0999 V2000
   15.7590    5.2340   16.4780 C   0  0  0  0  0  0  0  0  0  0  0  0
   14.6180    4.7680   15.6340 C   0  0  0  0  0  0  0  0  0  0  0  0
   14.3720    5.2300   14.3920 N   0  0  0  0  0  0  0  0  0  0  0  0
   13.3080    4.6180   13.9580 O   0  0  0  0  0  0  0  0  0  0  0  0
   12.8440    3.7790   14.8550 C   0  0  0  0  0  0  0  0  0  0  0  0
   11.6250    2.9370   14.6620 C   0  0  0  0  0  0  0  0  0  0  0  0
   13.6470    3.8430   15.9780 C   0  0  0  0  0  0  0  0  0  0  0  0
   13.5100    3.0650   17.2550 C   0  0  0  0  0  0  0  0  0  0  0  0
   14.7910    1.7640   17.3830 S   0  0  0  0  0  0  0  0  0  0  0  0
   13.9080    0.6710   18.5570 C   0  0  0  0  0  0  0  0  0  0  0  0
   14.3500   -0.7550   18.3880 C   0  0  0  0  0  0  0  0  0  0  0  0
   13.5210   -1.6190   17.9990 O   0  0  0  0  0  0  0  0  0  0  0  0
   15.7040   -1.1590   18.6270 N   0  0  0  0  0  2  0  0  0  0  0  0
   16.7600   -1.2130   17.6570 C   0  0  0  0  0  0  0  0  0  0  0  0
   16.6350   -1.9580   16.4700 C   0  0  0  0  0  0  0  0  0  0  0  0
   17.6710   -1.9610   15.5310 C   0  0  0  0  0  0  0  0  0  0  0  0
   18.8280   -1.2120   15.7600 C   0  0  0  0  0  0  0  0  0  0  0  0
   18.9470   -0.4490   16.9250 C   0  0  0  0  0  0  0  0  0  0  0  0
   17.9120   -0.4430   17.8660 C   0  0  0  0  0  0  0  0  0  0  0  0
   15.4966    5.1268   17.5409 H   0  0  0  0  0  0  0  0  0  0  0  0
   16.6499    4.6277   16.2573 H   0  0  0  0  0  0  0  0  0  0  0  0
   15.9707    6.2906   16.2573 H   0  0  0  0  0  0  0  0  0  0  0  0
   11.2156    2.6542   15.6430 H   0  0  0  0  0  0  0  0  0  0  0  0
   10.8705    3.5074   14.1004 H   0  0  0  0  0  0  0  0  0  0  0  0
   11.8914    2.0294   14.1004 H   0  0  0  0  0  0  0  0  0  0  0  0
   13.6125    3.7536   18.1067 H   0  0  0  0  0  0  0  0  0  0  0  0
   12.5222    2.5810   17.2620 H   0  0  0  0  0  0  0  0  0  0  0  0
   14.1232    0.9965   19.5855 H   0  0  0  0  0  0  0  0  0  0  0  0
   12.8284    0.7335   18.3556 H   0  0  0  0  0  0  0  0  0  0  0  0
   15.7205   -2.5392   16.2804 H   0  0  0  0  0  0  0  0  0  0  0  0
   17.5749   -2.5544   14.6098 H   0  0  0  0  0  0  0  0  0  0  0  0
   19.6451   -1.2228   15.0236 H   0  0  0  0  0  0  0  0  0  0  0  0
   19.8546    0.1468   17.1019 H   0  0  0  0  0  0  0  0  0  0  0  0
   18.0029    0.1696   18.7751 H   0  0  0  0  0  0  0  0  0  0  0  0
  1  2  1  0
  2  3  2  0
  3  4  1  0
  4  5  1  0
  5  6  1  0
  5  7  2  0
  7  8  1  0
  8  9  1  0
  9 10  1  0
 10 11  1  0
 11 12  2  0
 11 13  1  0
 13 14  1  0
 14 15  2  0
 15 16  1  0
 16 17  2  0
 17 18  1  0
 18 19  2  0
  7  2  1  0
 19 14  1  0
  1 20  1  0
  1 21  1  0
  1 22  1  0
  6 23  1  0
  6 24  1  0
  6 25  1  0
  8 26  1  0
  8 27  1  0
 10 28  1  0
 10 29  1  0
 15 30  1  0
 16 31  1  0
 17 32  1  0
 18 33  1  0
 19 34  1  0
M  CHG  1  13  -1
M  END
>  <QVINA2_Affinity>  (1) 
-5.8

>  <ID>  (1) 
FCG18066182

$$$$
FCG18066182_QVINA2_3
     RDKit          3D

 34 35  0  0  0  0  0  0  0  0999 V2000
   18.4700   -1.0720   17.5550 C   0  0  0  0  0  0  0  0  0  0  0  0
   17.2200   -0.4160   18.0430 C   0  0  0  0  0  0  0  0  0  0  0  0
   17.2020    0.7740   18.6760 N   0  0  0  0  0  0  0  0  0  0  0  0
   15.9590    1.0370   18.9630 O   0  0  0  0  0  0  0  0  0  0  0  0
   15.1630    0.0780   18.5490 C   0  0  0  0  0  0  0  0  0  0  0  0
   13.6820    0.0790   18.7410 C   0  0  0  0  0  0  0  0  0  0  0  0
   15.9290   -0.9070   17.9550 C   0  0  0  0  0  0  0  0  0  0  0  0
   15.4590   -2.1910   17.3330 C   0  0  0  0  0  0  0  0  0  0  0  0
   15.0380   -3.4340   18.6100 S   0  0  0  0  0  0  0  0  0  0  0  0
   14.4130   -4.7330   17.4830 C   0  0  0  0  0  0  0  0  0  0  0  0
   14.4860   -6.0830   18.1390 C   0  0  0  0  0  0  0  0  0  0  0  0
   15.5270   -6.4100   18.7680 O   0  0  0  0  0  0  0  0  0  0  0  0
   13.3880   -7.0040   18.0990 N   0  0  0  0  0  2  0  0  0  0  0  0
   12.2530   -7.0140   18.9770 C   0  0  0  0  0  0  0  0  0  0  0  0
   12.4020   -7.0710   20.3750 C   0  0  0  0  0  0  0  0  0  0  0  0
   11.2750   -7.0460   21.2020 C   0  0  0  0  0  0  0  0  0  0  0  0
    9.9970   -6.9460   20.6450 C   0  0  0  0  0  0  0  0  0  0  0  0
    9.8460   -6.8620   19.2590 C   0  0  0  0  0  0  0  0  0  0  0  0
   10.9710   -6.8860   18.4280 C   0  0  0  0  0  0  0  0  0  0  0  0
   19.0769   -1.3905   18.4154 H   0  0  0  0  0  0  0  0  0  0  0  0
   18.2095   -1.9496   16.9451 H   0  0  0  0  0  0  0  0  0  0  0  0
   19.0442   -0.3590   16.9451 H   0  0  0  0  0  0  0  0  0  0  0  0
   13.4517    0.0792   19.8166 H   0  0  0  0  0  0  0  0  0  0  0  0
   13.2523    0.9774   18.2739 H   0  0  0  0  0  0  0  0  0  0  0  0
   13.2511   -0.8189   18.2739 H   0  0  0  0  0  0  0  0  0  0  0  0
   14.5666   -1.9879   16.7227 H   0  0  0  0  0  0  0  0  0  0  0  0
   16.2723   -2.5937   16.7114 H   0  0  0  0  0  0  0  0  0  0  0  0
   13.3669   -4.5135   17.2233 H   0  0  0  0  0  0  0  0  0  0  0  0
   15.0359   -4.7454   16.5764 H   0  0  0  0  0  0  0  0  0  0  0  0
   13.4068   -7.1353   20.8180 H   0  0  0  0  0  0  0  0  0  0  0  0
   11.3944   -7.1052   22.2939 H   0  0  0  0  0  0  0  0  0  0  0  0
    9.1113   -6.9335   21.2973 H   0  0  0  0  0  0  0  0  0  0  0  0
    8.8409   -6.7768   18.8203 H   0  0  0  0  0  0  0  0  0  0  0  0
   10.8481   -6.8039   17.3380 H   0  0  0  0  0  0  0  0  0  0  0  0
  1  2  1  0
  2  3  2  0
  3  4  1  0
  4  5  1  0
  5  6  1  0
  5  7  2  0
  7  8  1  0
  8  9  1  0
  9 10  1  0
 10 11  1  0
 11 12  2  0
 11 13  1  0
 13 14  1  0
 14 15  2  0
 15 16  1  0
 16 17  2  0
 17 18  1  0
 18 19  2  0
  7  2  1  0
 19 14  1  0
  1 20  1  0
  1 21  1  0
  1 22  1  0
  6 23  1  0
  6 24  1  0
  6 25  1  0
  8 26  1  0
  8 27  1  0
 10 28  1  0
 10 29  1  0
 15 30  1  0
 16 31  1  0
 17 32  1  0
 18 33  1  0
 19 34  1  0
M  CHG  1  13  -1
M  END
>  <QVINA2_Affinity>  (2) 
-7.5

>  <ID>  (2) 
FCG18066182

$$$$
FCG18066182_QVINA2_4
     RDKit          3D

 34 35  0  0  0  0  0  0  0  0999 V2000
   13.6770    0.0800   18.7400 C   0  0  0  0  0  0  0  0  0  0  0  0
   15.1560    0.1690   18.5550 C   0  0  0  0  0  0  0  0  0  0  0  0
   15.9000    1.2060   18.9900 N   0  0  0  0  0  0  0  0  0  0  0  0
   17.1350    0.9590   18.6570 O   0  0  0  0  0  0  0  0  0  0  0  0
   17.2360   -0.1870   18.0240 C   0  0  0  0  0  0  0  0  0  0  0  0
   18.5190   -0.7440   17.5000 C   0  0  0  0  0  0  0  0  0  0  0  0
   15.9750   -0.7430   17.9120 C   0  0  0  0  0  0  0  0  0  0  0  0
   15.5960   -2.0470   17.2700 C   0  0  0  0  0  0  0  0  0  0  0  0
   15.3640   -3.3620   18.5210 S   0  0  0  0  0  0  0  0  0  0  0  0
   14.5550   -4.5900   17.4300 C   0  0  0  0  0  0  0  0  0  0  0  0
   14.5480   -5.9480   18.0750 C   0  0  0  0  0  0  0  0  0  0  0  0
   15.5370   -6.3110   18.7650 O   0  0  0  0  0  0  0  0  0  0  0  0
   13.4290   -6.8350   17.9560 N   0  0  0  0  0  2  0  0  0  0  0  0
   12.3120   -6.9210   18.8520 C   0  0  0  0  0  0  0  0  0  0  0  0
   12.4870   -7.0240   20.2430 C   0  0  0  0  0  0  0  0  0  0  0  0
   11.3750   -7.0710   21.0900 C   0  0  0  0  0  0  0  0  0  0  0  0
   10.0850   -7.0000   20.5580 C   0  0  0  0  0  0  0  0  0  0  0  0
    9.9050   -6.8700   19.1780 C   0  0  0  0  0  0  0  0  0  0  0  0
   11.0160   -6.8210   18.3290 C   0  0  0  0  0  0  0  0  0  0  0  0
   13.4421    0.0659   19.8145 H   0  0  0  0  0  0  0  0  0  0  0  0
   13.1957    0.9508   18.2709 H   0  0  0  0  0  0  0  0  0  0  0  0
   13.3036   -0.8422   18.2709 H   0  0  0  0  0  0  0  0  0  0  0  0
   19.1677   -1.0256   18.3425 H   0  0  0  0  0  0  0  0  0  0  0  0
   18.3094   -1.6321   16.8858 H   0  0  0  0  0  0  0  0  0  0  0  0
   19.0248    0.0156   16.8858 H   0  0  0  0  0  0  0  0  0  0  0  0
   14.6569   -1.9126   16.7132 H   0  0  0  0  0  0  0  0  0  0  0  0
   16.4093   -2.3504   16.5944 H   0  0  0  0  0  0  0  0  0  0  0  0
   13.5185   -4.2756   17.2382 H   0  0  0  0  0  0  0  0  0  0  0  0
   15.1159   -4.6490   16.4856 H   0  0  0  0  0  0  0  0  0  0  0  0
   13.5013   -7.0678   20.6665 H   0  0  0  0  0  0  0  0  0  0  0  0
   11.5163   -7.1640   22.1769 H   0  0  0  0  0  0  0  0  0  0  0  0
    9.2114   -7.0464   21.2249 H   0  0  0  0  0  0  0  0  0  0  0  0
    8.8898   -6.8062   18.7594 H   0  0  0  0  0  0  0  0  0  0  0  0
   10.8712   -6.7033   17.2449 H   0  0  0  0  0  0  0  0  0  0  0  0
  1  2  1  0
  2  3  2  0
  3  4  1  0
  4  5  1  0
  5  6  1  0
  5  7  2  0
  7  8  1  0
  8  9  1  0
  9 10  1  0
 10 11  1  0
 11 12  2  0
 11 13  1  0
 13 14  1  0
 14 15  2  0
 15 16  1  0
 16 17  2  0
 17 18  1  0
 18 19  2  0
  7  2  1  0
 19 14  1  0
  1 20  1  0
  1 21  1  0
  1 22  1  0
  6 23  1  0
  6 24  1  0
  6 25  1  0
  8 26  1  0
  8 27  1  0
 10 28  1  0
 10 29  1  0
 15 30  1  0
 16 31  1  0
 17 32  1  0
 18 33  1  0
 19 34  1  0
M  CHG  1  13  -1
M  END
>  <QVINA2_Affinity>  (3) 
-7.4

>  <ID>  (3) 
FCG18066182

$$$$
FCG18066182_QVINA2_6
     RDKit          3D

 34 35  0  0  0  0  0  0  0  0999 V2000
   18.9920   -1.4980   14.7090 C   0  0  0  0  0  0  0  0  0  0  0  0
   19.0370   -1.0580   16.1360 C   0  0  0  0  0  0  0  0  0  0  0  0
   20.1700   -0.6900   16.7670 N   0  0  0  0  0  0  0  0  0  0  0  0
   19.8440   -0.3770   17.9890 O   0  0  0  0  0  0  0  0  0  0  0  0
   18.5550   -0.5230   18.1890 C   0  0  0  0  0  0  0  0  0  0  0  0
   17.8750   -0.2580   19.4920 C   0  0  0  0  0  0  0  0  0  0  0  0
   17.9750   -0.9810   17.0210 C   0  0  0  0  0  0  0  0  0  0  0  0
   16.5260   -1.2900   16.7700 C   0  0  0  0  0  0  0  0  0  0  0  0
   15.9400   -2.6500   17.8460 S   0  0  0  0  0  0  0  0  0  0  0  0
   15.1530   -3.6650   16.5410 C   0  0  0  0  0  0  0  0  0  0  0  0
   14.4830   -4.8690   17.1400 C   0  0  0  0  0  0  0  0  0  0  0  0
   15.0350   -5.9970   17.0440 O   0  0  0  0  0  0  0  0  0  0  0  0
   13.2420   -4.7680   17.8510 N   0  0  0  0  0  2  0  0  0  0  0  0
   12.4820   -5.8560   18.3950 C   0  0  0  0  0  0  0  0  0  0  0  0
   12.9540   -6.6140   19.4830 C   0  0  0  0  0  0  0  0  0  0  0  0
   12.1720   -7.6470   20.0110 C   0  0  0  0  0  0  0  0  0  0  0  0
   10.9120   -7.9190   19.4700 C   0  0  0  0  0  0  0  0  0  0  0  0
   10.4280   -7.1520   18.4070 C   0  0  0  0  0  0  0  0  0  0  0  0
   11.2070   -6.1180   17.8780 C   0  0  0  0  0  0  0  0  0  0  0  0
   18.8802   -2.5914   14.6658 H   0  0  0  0  0  0  0  0  0  0  0  0
   18.1379   -1.0219   14.2053 H   0  0  0  0  0  0  0  0  0  0  0  0
   19.9248   -1.2046   14.2053 H   0  0  0  0  0  0  0  0  0  0  0  0
   18.5511   -0.5215   20.3187 H   0  0  0  0  0  0  0  0  0  0  0  0
   17.6126    0.8082   19.5585 H   0  0  0  0  0  0  0  0  0  0  0  0
   16.9604   -0.8655   19.5585 H   0  0  0  0  0  0  0  0  0  0  0  0
   15.9273   -0.3896   16.9724 H   0  0  0  0  0  0  0  0  0  0  0  0
   16.4144   -1.6040   15.7217 H   0  0  0  0  0  0  0  0  0  0  0  0
   14.4020   -3.0579   16.0144 H   0  0  0  0  0  0  0  0  0  0  0  0
   15.9289   -4.0035   15.8386 H   0  0  0  0  0  0  0  0  0  0  0  0
   13.9396   -6.3938   19.9190 H   0  0  0  0  0  0  0  0  0  0  0  0
   12.5491   -8.2460   20.8530 H   0  0  0  0  0  0  0  0  0  0  0  0
   10.3017   -8.7367   19.8810 H   0  0  0  0  0  0  0  0  0  0  0  0
    9.4336   -7.3616   17.9860 H   0  0  0  0  0  0  0  0  0  0  0  0
   10.8161   -5.5069   17.0511 H   0  0  0  0  0  0  0  0  0  0  0  0
  1  2  1  0
  2  3  2  0
  3  4  1  0
  4  5  1  0
  5  6  1  0
  5  7  2  0
  7  8  1  0
  8  9  1  0
  9 10  1  0
 10 11  1  0
 11 12  2  0
 11 13  1  0
 13 14  1  0
 14 15  2  0
 15 16  1  0
 16 17  2  0
 17 18  1  0
 18 19  2  0
  7  2  1  0
 19 14  1  0
  1 20  1  0
  1 21  1  0
  1 22  1  0
  6 23  1  0
  6 24  1  0
  6 25  1  0
  8 26  1  0
  8 27  1  0
 10 28  1  0
 10 29  1  0
 15 30  1  0
 16 31  1  0
 17 32  1  0
 18 33  1  0
 19 34  1  0
M  CHG  1  13  -1
M  END
>  <QVINA2_Affinity>  (4) 
-6.2

>  <ID>  (4) 
FCG18066182

$$$$
FCG18066182_QVINA2_7
     RDKit          3D

 34 35  0  0  0  0  0  0  0  0999 V2000
   14.2250   -1.3680   18.5050 C   0  0  0  0  0  0  0  0  0  0  0  0
   15.4490   -1.4430   17.6530 C   0  0  0  0  0  0  0  0  0  0  0  0
   15.7760   -2.5200   16.9110 N   0  0  0  0  0  0  0  0  0  0  0  0
   16.8970   -2.2450   16.3070 O   0  0  0  0  0  0  0  0  0  0  0  0
   17.3210   -1.0420   16.6190 C   0  0  0  0  0  0  0  0  0  0  0  0
   18.5850   -0.4390   16.0990 C   0  0  0  0  0  0  0  0  0  0  0  0
   16.4270   -0.4740   17.5070 C   0  0  0  0  0  0  0  0  0  0  0  0
   16.4920    0.8890   18.1360 C   0  0  0  0  0  0  0  0  0  0  0  0
   15.9470    2.1880   16.9680 S   0  0  0  0  0  0  0  0  0  0  0  0
   14.1800    2.2140   17.4460 C   0  0  0  0  0  0  0  0  0  0  0  0
   13.5980    3.5850   17.2450 C   0  0  0  0  0  0  0  0  0  0  0  0
   13.1480    4.2180   18.2370 O   0  0  0  0  0  0  0  0  0  0  0  0
   13.5680    4.2130   15.9570 N   0  0  0  0  0  2  0  0  0  0  0  0
   13.1090    3.6230   14.7330 C   0  0  0  0  0  0  0  0  0  0  0  0
   11.8100    3.0960   14.6100 C   0  0  0  0  0  0  0  0  0  0  0  0
   11.3830    2.5590   13.3910 C   0  0  0  0  0  0  0  0  0  0  0  0
   12.2390    2.5580   12.2860 C   0  0  0  0  0  0  0  0  0  0  0  0
   13.5200    3.1050   12.3960 C   0  0  0  0  0  0  0  0  0  0  0  0
   13.9500    3.6440   13.6130 C   0  0  0  0  0  0  0  0  0  0  0  0
   14.5151   -1.3858   19.5659 H   0  0  0  0  0  0  0  0  0  0  0  0
   13.6841   -0.4350   18.2884 H   0  0  0  0  0  0  0  0  0  0  0  0
   13.5742   -2.2280   18.2884 H   0  0  0  0  0  0  0  0  0  0  0  0
   19.2211   -0.1356   16.9436 H   0  0  0  0  0  0  0  0  0  0  0  0
   19.1190   -1.1793   15.4853 H   0  0  0  0  0  0  0  0  0  0  0  0
   18.3456    0.4419   15.4853 H   0  0  0  0  0  0  0  0  0  0  0  0
   15.8392    0.9065   19.0212 H   0  0  0  0  0  0  0  0  0  0  0  0
   17.5358    1.0916   18.4177 H   0  0  0  0  0  0  0  0  0  0  0  0
   13.6273    1.4922   16.8267 H   0  0  0  0  0  0  0  0  0  0  0  0
   14.0962    1.9455   18.5094 H   0  0  0  0  0  0  0  0  0  0  0  0
   11.1292    3.1064   15.4739 H   0  0  0  0  0  0  0  0  0  0  0  0
   10.3713    2.1365   13.3018 H   0  0  0  0  0  0  0  0  0  0  0  0
   11.9045    2.1270   11.3308 H   0  0  0  0  0  0  0  0  0  0  0  0
   14.1911    3.1118   11.5245 H   0  0  0  0  0  0  0  0  0  0  0  0
   14.9539    4.0867   13.6910 H   0  0  0  0  0  0  0  0  0  0  0  0
  1  2  1  0
  2  3  2  0
  3  4  1  0
  4  5  1  0
  5  6  1  0
  5  7  2  0
  7  8  1  0
  8  9  1  0
  9 10  1  0
 10 11  1  0
 11 12  2  0
 11 13  1  0
 13 14  1  0
 14 15  2  0
 15 16  1  0
 16 17  2  0
 17 18  1  0
 18 19  2  0
  7  2  1  0
 19 14  1  0
  1 20  1  0
  1 21  1  0
  1 22  1  0
  6 23  1  0
  6 24  1  0
  6 25  1  0
  8 26  1  0
  8 27  1  0
 10 28  1  0
 10 29  1  0
 15 30  1  0
 16 31  1  0
 17 32  1  0
 18 33  1  0
 19 34  1  0
M  CHG  1  13  -1
M  END
>  <QVINA2_Affinity>  (5) 
-5.9

>  <ID>  (5) 
FCG18066182

$$$$
FCG18066182_QVINA2_5
     RDKit          3D

 34 35  0  0  0  0  0  0  0  0999 V2000
   17.2770    0.1860   18.7530 C   0  0  0  0  0  0  0  0  0  0  0  0
   17.4160   -0.6910   17.5520 C   0  0  0  0  0  0  0  0  0  0  0  0
   18.5460   -0.7790   16.8210 N   0  0  0  0  0  0  0  0  0  0  0  0
   18.3120   -1.6220   15.8560 O   0  0  0  0  0  0  0  0  0  0  0  0
   17.0870   -2.0890   15.9180 C   0  0  0  0  0  0  0  0  0  0  0  0
   16.5110   -3.0640   14.9440 C   0  0  0  0  0  0  0  0  0  0  0  0
   16.4460   -1.5060   16.9950 C   0  0  0  0  0  0  0  0  0  0  0  0
   15.0360   -1.7330   17.4630 C   0  0  0  0  0  0  0  0  0  0  0  0
   14.9680   -3.0100   18.7730 S   0  0  0  0  0  0  0  0  0  0  0  0
   14.5650   -4.4360   17.6980 C   0  0  0  0  0  0  0  0  0  0  0  0
   14.8910   -5.7290   18.3900 C   0  0  0  0  0  0  0  0  0  0  0  0
   15.9210   -5.8040   19.1100 O   0  0  0  0  0  0  0  0  0  0  0  0
   14.0430   -6.8790   18.2810 N   0  0  0  0  0  2  0  0  0  0  0  0
   12.9470   -7.2140   19.1440 C   0  0  0  0  0  0  0  0  0  0  0  0
   11.8660   -7.9950   18.6960 C   0  0  0  0  0  0  0  0  0  0  0  0
   10.8300   -8.3310   19.5740 C   0  0  0  0  0  0  0  0  0  0  0  0
   10.8730   -7.9050   20.9040 C   0  0  0  0  0  0  0  0  0  0  0  0
   11.9570   -7.1520   21.3620 C   0  0  0  0  0  0  0  0  0  0  0  0
   12.9950   -6.8150   20.4860 C   0  0  0  0  0  0  0  0  0  0  0  0
   17.3734   -0.4223   19.6644 H   0  0  0  0  0  0  0  0  0  0  0  0
   18.0647    0.9537   18.7396 H   0  0  0  0  0  0  0  0  0  0  0  0
   16.2905    0.6725   18.7396 H   0  0  0  0  0  0  0  0  0  0  0  0
   16.0256   -3.8856   15.4912 H   0  0  0  0  0  0  0  0  0  0  0  0
   15.7683   -2.5554   14.3118 H   0  0  0  0  0  0  0  0  0  0  0  0
   17.3149   -3.4690   14.3118 H   0  0  0  0  0  0  0  0  0  0  0  0
   14.6342   -0.7895   17.8610 H   0  0  0  0  0  0  0  0  0  0  0  0
   14.4378   -2.0805   16.6078 H   0  0  0  0  0  0  0  0  0  0  0  0
   13.4918   -4.4154   17.4574 H   0  0  0  0  0  0  0  0  0  0  0  0
   15.1629   -4.3661   16.7774 H   0  0  0  0  0  0  0  0  0  0  0  0
   11.8353   -8.3423   17.6527 H   0  0  0  0  0  0  0  0  0  0  0  0
    9.9804   -8.9314   19.2168 H   0  0  0  0  0  0  0  0  0  0  0  0
   10.0531   -8.1626   21.5907 H   0  0  0  0  0  0  0  0  0  0  0  0
   11.9946   -6.8240   22.4113 H   0  0  0  0  0  0  0  0  0  0  0  0
   13.8535   -6.2335   20.8533 H   0  0  0  0  0  0  0  0  0  0  0  0
  1  2  1  0
  2  3  2  0
  3  4  1  0
  4  5  1  0
  5  6  1  0
  5  7  2  0
  7  8  1  0
  8  9  1  0
  9 10  1  0
 10 11  1  0
 11 12  2  0
 11 13  1  0
 13 14  1  0
 14 15  2  0
 15 16  1  0
 16 17  2  0
 17 18  1  0
 18 19  2  0
  7  2  1  0
 19 14  1  0
  1 20  1  0
  1 21  1  0
  1 22  1  0
  6 23  1  0
  6 24  1  0
  6 25  1  0
  8 26  1  0
  8 27  1  0
 10 28  1  0
 10 29  1  0
 15 30  1  0
 16 31  1  0
 17 32  1  0
 18 33  1  0
 19 34  1  0
M  CHG  1  13  -1
M  END
>  <QVINA2_Affinity>  (6) 
-6.5

>  <ID>  (6) 
FCG18066182

$$$$
FCG18066182_QVINA2_2
     RDKit          3D

 34 35  0  0  0  0  0  0  0  0999 V2000
   14.3720   -6.4780   21.9250 C   0  0  0  0  0  0  0  0  0  0  0  0
   13.0910   -6.7360   21.2030 C   0  0  0  0  0  0  0  0  0  0  0  0
   11.9010   -6.8760   21.8220 N   0  0  0  0  0  0  0  0  0  0  0  0
   11.0110   -7.0940   20.8960 O   0  0  0  0  0  0  0  0  0  0  0  0
   11.5590   -7.1050   19.7030 C   0  0  0  0  0  0  0  0  0  0  0  0
   10.8030   -7.3440   18.4370 C   0  0  0  0  0  0  0  0  0  0  0  0
   12.9180   -6.8930   19.8380 C   0  0  0  0  0  0  0  0  0  0  0  0
   13.9520   -6.8200   18.7510 C   0  0  0  0  0  0  0  0  0  0  0  0
   13.7720   -5.2900   17.7620 S   0  0  0  0  0  0  0  0  0  0  0  0
   14.9110   -4.2390   18.7360 C   0  0  0  0  0  0  0  0  0  0  0  0
   14.6410   -2.7840   18.4750 C   0  0  0  0  0  0  0  0  0  0  0  0
   13.5510   -2.4410   17.9470 O   0  0  0  0  0  0  0  0  0  0  0  0
   15.5790   -1.7640   18.8410 N   0  0  0  0  0  2  0  0  0  0  0  0
   16.7590   -1.3910   18.1150 C   0  0  0  0  0  0  0  0  0  0  0  0
   17.8720   -0.8200   18.7580 C   0  0  0  0  0  0  0  0  0  0  0  0
   19.0190   -0.5000   18.0250 C   0  0  0  0  0  0  0  0  0  0  0  0
   19.0700   -0.7610   16.6530 C   0  0  0  0  0  0  0  0  0  0  0  0
   17.9770   -1.3530   16.0140 C   0  0  0  0  0  0  0  0  0  0  0  0
   16.8290   -1.6750   16.7450 C   0  0  0  0  0  0  0  0  0  0  0  0
   14.1949   -6.5137   23.0101 H   0  0  0  0  0  0  0  0  0  0  0  0
   15.1098   -7.2456   21.6485 H   0  0  0  0  0  0  0  0  0  0  0  0
   14.7551   -5.4847   21.6485 H   0  0  0  0  0  0  0  0  0  0  0  0
    9.7794   -7.6676   18.6767 H   0  0  0  0  0  0  0  0  0  0  0  0
   10.7657   -6.4138   17.8510 H   0  0  0  0  0  0  0  0  0  0  0  0
   11.3072   -8.1266   17.8510 H   0  0  0  0  0  0  0  0  0  0  0  0
   14.9529   -6.8360   19.2071 H   0  0  0  0  0  0  0  0  0  0  0  0
   13.8144   -7.6830   18.0829 H   0  0  0  0  0  0  0  0  0  0  0  0
   14.7683   -4.4468   19.8067 H   0  0  0  0  0  0  0  0  0  0  0  0
   15.9454   -4.4668   18.4389 H   0  0  0  0  0  0  0  0  0  0  0  0
   17.8401   -0.6247   19.8401 H   0  0  0  0  0  0  0  0  0  0  0  0
   19.8827   -0.0420   18.5292 H   0  0  0  0  0  0  0  0  0  0  0  0
   19.9698   -0.5007   16.0764 H   0  0  0  0  0  0  0  0  0  0  0  0
   18.0197   -1.5658   14.9356 H   0  0  0  0  0  0  0  0  0  0  0  0
   15.9763   -2.1539   16.2414 H   0  0  0  0  0  0  0  0  0  0  0  0
  1  2  1  0
  2  3  2  0
  3  4  1  0
  4  5  1  0
  5  6  1  0
  5  7  2  0
  7  8  1  0
  8  9  1  0
  9 10  1  0
 10 11  1  0
 11 12  2  0
 11 13  1  0
 13 14  1  0
 14 15  2  0
 15 16  1  0
 16 17  2  0
 17 18  1  0
 18 19  2  0
  7  2  1  0
 19 14  1  0
  1 20  1  0
  1 21  1  0
  1 22  1  0
  6 23  1  0
  6 24  1  0
  6 25  1  0
  8 26  1  0
  8 27  1  0
 10 28  1  0
 10 29  1  0
 15 30  1  0
 16 31  1  0
 17 32  1  0
 18 33  1  0
 19 34  1  0
M  CHG  1  13  -1
M  END
>  <QVINA2_Affinity>  (7) 
-7.8

>  <ID>  (7) 
FCG18066182

$$$$
FCG18066182_QVINA2_8
     RDKit          3D

 34 35  0  0  0  0  0  0  0  0999 V2000
   18.6250   -0.4580   16.1150 C   0  0  0  0  0  0  0  0  0  0  0  0
   17.3730   -1.1130   16.5990 C   0  0  0  0  0  0  0  0  0  0  0  0
   16.9460   -2.3160   16.1660 N   0  0  0  0  0  0  0  0  0  0  0  0
   15.8300   -2.5730   16.7870 O   0  0  0  0  0  0  0  0  0  0  0  0
   15.5050   -1.5980   17.6040 C   0  0  0  0  0  0  0  0  0  0  0  0
   14.2730   -1.5880   18.4480 C   0  0  0  0  0  0  0  0  0  0  0  0
   16.4650   -0.6070   17.5140 C   0  0  0  0  0  0  0  0  0  0  0  0
   16.5200    0.6950   18.2610 C   0  0  0  0  0  0  0  0  0  0  0  0
   15.9870    2.0910   17.2050 S   0  0  0  0  0  0  0  0  0  0  0  0
   14.2270    2.1140   17.7080 C   0  0  0  0  0  0  0  0  0  0  0  0
   13.7540    3.5250   17.9160 C   0  0  0  0  0  0  0  0  0  0  0  0
   13.8810    4.0600   19.0490 O   0  0  0  0  0  0  0  0  0  0  0  0
   13.1890    4.2970   16.8490 N   0  0  0  0  0  2  0  0  0  0  0  0
   13.0230    3.8760   15.4880 C   0  0  0  0  0  0  0  0  0  0  0  0
   14.0720    3.9660   14.5550 C   0  0  0  0  0  0  0  0  0  0  0  0
   13.8860    3.5150   13.2440 C   0  0  0  0  0  0  0  0  0  0  0  0
   12.6630    2.9580   12.8600 C   0  0  0  0  0  0  0  0  0  0  0  0
   11.6270    2.8420   13.7900 C   0  0  0  0  0  0  0  0  0  0  0  0
   11.8100    3.2910   15.1030 C   0  0  0  0  0  0  0  0  0  0  0  0
   19.2301   -0.1414   16.9773 H   0  0  0  0  0  0  0  0  0  0  0  0
   19.1998   -1.1709   15.5056 H   0  0  0  0  0  0  0  0  0  0  0  0
   18.3671    0.4207   15.5056 H   0  0  0  0  0  0  0  0  0  0  0  0
   14.5566   -1.5903   19.5108 H   0  0  0  0  0  0  0  0  0  0  0  0
   13.6848   -0.6851   18.2274 H   0  0  0  0  0  0  0  0  0  0  0  0
   13.6702   -2.4813   18.2274 H   0  0  0  0  0  0  0  0  0  0  0  0
   15.8565    0.6342   19.1362 H   0  0  0  0  0  0  0  0  0  0  0  0
   17.5599    0.8728   18.5724 H   0  0  0  0  0  0  0  0  0  0  0  0
   13.6202    1.6417   16.9214 H   0  0  0  0  0  0  0  0  0  0  0  0
   14.1215    1.5619   18.6536 H   0  0  0  0  0  0  0  0  0  0  0  0
   15.0403    4.3918   14.8569 H   0  0  0  0  0  0  0  0  0  0  0  0
   14.7042    3.5989   12.5136 H   0  0  0  0  0  0  0  0  0  0  0  0
   12.5163    2.6113   11.8264 H   0  0  0  0  0  0  0  0  0  0  0  0
   10.6666    2.3974   13.4901 H   0  0  0  0  0  0  0  0  0  0  0  0
   10.9971    3.1839   15.8363 H   0  0  0  0  0  0  0  0  0  0  0  0
  1  2  1  0
  2  3  2  0
  3  4  1  0
  4  5  1  0
  5  6  1  0
  5  7  2  0
  7  8  1  0
  8  9  1  0
  9 10  1  0
 10 11  1  0
 11 12  2  0
 11 13  1  0
 13 14  1  0
 14 15  2  0
 15 16  1  0
 16 17  2  0
 17 18  1  0
 18 19  2  0
  7  2  1  0
 19 14  1  0
  1 20  1  0
  1 21  1  0
  1 22  1  0
  6 23  1  0
  6 24  1  0
  6 25  1  0
  8 26  1  0
  8 27  1  0
 10 28  1  0
 10 29  1  0
 15 30  1  0
 16 31  1  0
 17 32  1  0
 18 33  1  0
 19 34  1  0
M  CHG  1  13  -1
M  END
>  <QVINA2_Affinity>  (8) 
-5.9

>  <ID>  (8) 
FCG18066182

$$$$
FCG18066182_QVINA2_9
     RDKit          3D

 34 35  0  0  0  0  0  0  0  0999 V2000
   12.4810    2.8400   12.8200 C   0  0  0  0  0  0  0  0  0  0  0  0
   13.0740    4.1450   13.2390 C   0  0  0  0  0  0  0  0  0  0  0  0
   13.3600    5.1440   12.3800 N   0  0  0  0  0  0  0  0  0  0  0  0
   13.8660    6.1190   13.0800 O   0  0  0  0  0  0  0  0  0  0  0  0
   13.9260    5.8080   14.3540 C   0  0  0  0  0  0  0  0  0  0  0  0
   14.4700    6.7110   15.4120 C   0  0  0  0  0  0  0  0  0  0  0  0
   13.4390    4.5250   14.5190 C   0  0  0  0  0  0  0  0  0  0  0  0
   13.3090    3.7450   15.7970 C   0  0  0  0  0  0  0  0  0  0  0  0
   14.8720    2.8900   16.2160 S   0  0  0  0  0  0  0  0  0  0  0  0
   14.1850    1.7250   17.4490 C   0  0  0  0  0  0  0  0  0  0  0  0
   15.2060    1.4080   18.5050 C   0  0  0  0  0  0  0  0  0  0  0  0
   15.4040    2.2260   19.4410 O   0  0  0  0  0  0  0  0  0  0  0  0
   15.9450    0.1790   18.4970 N   0  0  0  0  0  2  0  0  0  0  0  0
   17.2500   -0.0260   17.9370 C   0  0  0  0  0  0  0  0  0  0  0  0
   18.3720   -0.2660   18.7510 C   0  0  0  0  0  0  0  0  0  0  0  0
   19.6230   -0.4960   18.1710 C   0  0  0  0  0  0  0  0  0  0  0  0
   19.7610   -0.5040   16.7800 C   0  0  0  0  0  0  0  0  0  0  0  0
   18.6450   -0.2930   15.9670 C   0  0  0  0  0  0  0  0  0  0  0  0
   17.3910   -0.0640   16.5440 C   0  0  0  0  0  0  0  0  0  0  0  0
   12.2150    2.2547   13.7126 H   0  0  0  0  0  0  0  0  0  0  0  0
   11.5779    3.0236   12.2194 H   0  0  0  0  0  0  0  0  0  0  0  0
   13.2133    2.2805   12.2194 H   0  0  0  0  0  0  0  0  0  0  0  0
   14.2244    6.3034   16.4038 H   0  0  0  0  0  0  0  0  0  0  0  0
   15.5624    6.7839   15.3057 H   0  0  0  0  0  0  0  0  0  0  0  0
   14.0238    7.7108   15.3057 H   0  0  0  0  0  0  0  0  0  0  0  0
   13.0481    4.4350   16.6130 H   0  0  0  0  0  0  0  0  0  0  0  0
   12.5236    2.9867   15.6626 H   0  0  0  0  0  0  0  0  0  0  0  0
   13.3033    2.1800   17.9239 H   0  0  0  0  0  0  0  0  0  0  0  0
   13.9037    0.7928   16.9372 H   0  0  0  0  0  0  0  0  0  0  0  0
   18.2648   -0.2727   19.8457 H   0  0  0  0  0  0  0  0  0  0  0  0
   20.5006   -0.6711   18.8106 H   0  0  0  0  0  0  0  0  0  0  0  0
   20.7480   -0.6764   16.3259 H   0  0  0  0  0  0  0  0  0  0  0  0
   18.7520   -0.3069   14.8723 H   0  0  0  0  0  0  0  0  0  0  0  0
   16.5117    0.0869   15.9005 H   0  0  0  0  0  0  0  0  0  0  0  0
  1  2  1  0
  2  3  2  0
  3  4  1  0
  4  5  1  0
  5  6  1  0
  5  7  2  0
  7  8  1  0
  8  9  1  0
  9 10  1  0
 10 11  1  0
 11 12  2  0
 11 13  1  0
 13 14  1  0
 14 15  2  0
 15 16  1  0
 16 17  2  0
 17 18  1  0
 18 19  2  0
  7  2  1  0
 19 14  1  0
  1 20  1  0
  1 21  1  0
  1 22  1  0
  6 23  1  0
  6 24  1  0
  6 25  1  0
  8 26  1  0
  8 27  1  0
 10 28  1  0
 10 29  1  0
 15 30  1  0
 16 31  1  0
 17 32  1  0
 18 33  1  0
 19 34  1  0
M  CHG  1  13  -1
M  END
>  <QVINA2_Affinity>  (9) 
-5.8

>  <ID>  (9) 
FCG18066182

$$$$
FCG18066182_QVINA2_1
     RDKit          3D

 34 35  0  0  0  0  0  0  0  0999 V2000
   10.8820   -7.3820   18.4570 C   0  0  0  0  0  0  0  0  0  0  0  0
   11.6350   -7.1320   19.7220 C   0  0  0  0  0  0  0  0  0  0  0  0
   11.0560   -7.0870   20.9380 N   0  0  0  0  0  0  0  0  0  0  0  0
   11.9990   -6.8450   21.8030 O   0  0  0  0  0  0  0  0  0  0  0  0
   13.1660   -6.7270   21.2140 C   0  0  0  0  0  0  0  0  0  0  0  0
   14.4420   -6.4350   21.9330 C   0  0  0  0  0  0  0  0  0  0  0  0
   12.9920   -6.8890   19.8520 C   0  0  0  0  0  0  0  0  0  0  0  0
   14.0400   -6.8410   18.7760 C   0  0  0  0  0  0  0  0  0  0  0  0
   13.8530   -5.3500   17.7310 S   0  0  0  0  0  0  0  0  0  0  0  0
   14.8860   -4.2220   18.7370 C   0  0  0  0  0  0  0  0  0  0  0  0
   14.5640   -2.7880   18.4210 C   0  0  0  0  0  0  0  0  0  0  0  0
   13.4730   -2.5070   17.8600 O   0  0  0  0  0  0  0  0  0  0  0  0
   15.4530   -1.7190   18.7710 N   0  0  0  0  0  2  0  0  0  0  0  0
   16.6900   -1.3930   18.1220 C   0  0  0  0  0  0  0  0  0  0  0  0
   16.8460   -1.5150   16.7290 C   0  0  0  0  0  0  0  0  0  0  0  0
   18.0560   -1.1560   16.1250 C   0  0  0  0  0  0  0  0  0  0  0  0
   19.1080   -0.6600   16.9000 C   0  0  0  0  0  0  0  0  0  0  0  0
   18.9480   -0.5130   18.2800 C   0  0  0  0  0  0  0  0  0  0  0  0
   17.7400   -0.8700   18.8880 C   0  0  0  0  0  0  0  0  0  0  0  0
    9.8633   -7.7202   18.6974 H   0  0  0  0  0  0  0  0  0  0  0  0
   10.8310   -6.4526   17.8708 H   0  0  0  0  0  0  0  0  0  0  0  0
   11.3970   -8.1574   17.8708 H   0  0  0  0  0  0  0  0  0  0  0  0
   14.2686   -6.4747   23.0185 H   0  0  0  0  0  0  0  0  0  0  0  0
   15.1990   -7.1831   21.6550 H   0  0  0  0  0  0  0  0  0  0  0  0
   14.7983   -5.4321   21.6550 H   0  0  0  0  0  0  0  0  0  0  0  0
   15.0348   -6.8272   19.2452 H   0  0  0  0  0  0  0  0  0  0  0  0
   13.9229   -7.7291   18.1376 H   0  0  0  0  0  0  0  0  0  0  0  0
   14.6930   -4.4095   19.8036 H   0  0  0  0  0  0  0  0  0  0  0  0
   15.9449   -4.4077   18.5040 H   0  0  0  0  0  0  0  0  0  0  0  0
   16.0159   -1.8930   16.1142 H   0  0  0  0  0  0  0  0  0  0  0  0
   18.1796   -1.2644   15.0374 H   0  0  0  0  0  0  0  0  0  0  0  0
   20.0609   -0.3857   16.4239 H   0  0  0  0  0  0  0  0  0  0  0  0
   19.7732   -0.1159   18.8893 H   0  0  0  0  0  0  0  0  0  0  0  0
   17.6138   -0.7395   19.9729 H   0  0  0  0  0  0  0  0  0  0  0  0
  1  2  1  0
  2  3  2  0
  3  4  1  0
  4  5  1  0
  5  6  1  0
  5  7  2  0
  7  8  1  0
  8  9  1  0
  9 10  1  0
 10 11  1  0
 11 12  2  0
 11 13  1  0
 13 14  1  0
 14 15  2  0
 15 16  1  0
 16 17  2  0
 17 18  1  0
 18 19  2  0
  7  2  1  0
 19 14  1  0
  1 20  1  0
  1 21  1  0
  1 22  1  0
  6 23  1  0
  6 24  1  0
  6 25  1  0
  8 26  1  0
  8 27  1  0
 10 28  1  0
 10 29  1  0
 15 30  1  0
 16 31  1  0
 17 32  1  0
 18 33  1  0
 19 34  1  0
M  CHG  1  13  -1
M  END
>  <QVINA2_Affinity>  (10) 
-7.9

>  <ID>  (10) 
FCG18066182

$$$$
