FCG16425532_GNINA_9


 18 19  0  0  0  0  0  0  0  0999 V2000
   16.9879    0.9510   16.4639 O   0  0  0  0  0  0  0  0  0  0  0  0
   17.4330   -0.2752   16.9687 C   0  0  0  0  0  0  0  0  0  0  0  0
   16.6291   -1.2394   17.0927 O   0  0  0  0  0  0  0  0  0  0  0  0
   19.8721   -0.5156   15.0428 C   0  0  0  0  0  0  0  0  0  0  0  0
   19.8949   -0.5594   16.5033 N   0  0  0  0  0  0  0  0  0  0  0  0
   21.0026   -0.7062   17.2573 C   0  0  0  0  0  0  0  0  0  0  0  0
   20.6681   -0.6940   18.5956 C   0  0  0  0  0  0  0  0  0  0  0  0
   19.2986   -0.5328   18.6606 C   0  0  0  0  0  0  0  0  0  0  0  0
   18.8472   -0.4548   17.3545 C   0  0  0  0  0  0  0  0  0  0  0  0
   15.6378    1.1999   16.0797 C   0  0  0  0  0  0  0  0  0  0  0  0
   15.0237    2.2500   16.9768 C   0  0  0  0  0  0  0  0  0  0  0  0
   14.9508    1.9869   18.3559 C   0  0  0  0  0  0  0  0  0  0  0  0
   14.3792    2.9158   19.2281 C   0  0  0  0  0  0  0  0  0  0  0  0
   13.8718    4.1181   18.7349 C   0  0  0  0  0  0  0  0  0  0  0  0
   13.9333    4.3953   17.3677 C   0  0  0  0  0  0  0  0  0  0  0  0
   14.5045    3.4709   16.4809 C   0  0  0  0  0  0  0  0  0  0  0  0
   14.5422    3.8010   15.0765 C   0  0  0  0  0  0  0  0  0  0  0  0
   14.5735    4.0655   13.9503 N   0  0  0  0  0  0  0  0  0  0  0  0
  4  5  1  0  0  0
  5  6  1  0  0  0
  6  7  2  0  0  0
  7  8  1  0  0  0
  8  9  2  0  0  0
  9  2  1  0  0  0
  2  3  2  0  0  0
  2  1  1  0  0  0
  1 10  1  0  0  0
 10 11  1  0  0  0
 11 12  2  0  0  0
 12 13  1  0  0  0
 13 14  2  0  0  0
 14 15  1  0  0  0
 15 16  2  0  0  0
 16 17  1  0  0  0
 17 18  3  0  0  0
  9  5  1  0  0  0
 16 11  1  0  0  0
M  END
> <minimizedAffinity>
-5.34941

> <CNNscore>
0.4407679439

> <CNNaffinity>
5.2824516296

> <CNN_VS>
2.3283352852

$$$$
FCG16425532_SMINA_8


 18 19  0  0  0  0  0  0  0  0999 V2000
   14.4425   -5.7345   19.4406 O   0  0  0  0  0  0  0  0  0  0  0  0
   13.6845   -6.9089   19.3880 C   0  0  0  0  0  0  0  0  0  0  0  0
   14.1490   -7.9388   18.8267 O   0  0  0  0  0  0  0  0  0  0  0  0
   10.9613   -6.9469   17.8720 C   0  0  0  0  0  0  0  0  0  0  0  0
   11.1647   -6.9707   19.3188 N   0  0  0  0  0  0  0  0  0  0  0  0
   10.1811   -7.0216   20.2392 C   0  0  0  0  0  0  0  0  0  0  0  0
   10.7222   -7.0428   21.5080 C   0  0  0  0  0  0  0  0  0  0  0  0
   12.0936   -7.0030   21.3550 C   0  0  0  0  0  0  0  0  0  0  0  0
   12.3385   -6.9567   19.9936 C   0  0  0  0  0  0  0  0  0  0  0  0
   15.3258   -5.3212   18.4008 C   0  0  0  0  0  0  0  0  0  0  0  0
   15.3929   -3.8124   18.3403 C   0  0  0  0  0  0  0  0  0  0  0  0
   16.6027   -3.1857   18.6871 C   0  0  0  0  0  0  0  0  0  0  0  0
   16.7152   -1.7939   18.6636 C   0  0  0  0  0  0  0  0  0  0  0  0
   15.6215   -1.0099   18.2953 C   0  0  0  0  0  0  0  0  0  0  0  0
   14.4113   -1.6150   17.9501 C   0  0  0  0  0  0  0  0  0  0  0  0
   14.2848   -3.0117   17.9699 C   0  0  0  0  0  0  0  0  0  0  0  0
   13.0131   -3.5902   17.6082 C   0  0  0  0  0  0  0  0  0  0  0  0
   11.9937   -4.0544   17.3172 N   0  0  0  0  0  0  0  0  0  0  0  0
  4  5  1  0  0  0
  5  6  1  0  0  0
  6  7  2  0  0  0
  7  8  1  0  0  0
  8  9  2  0  0  0
  9  2  1  0  0  0
  2  3  2  0  0  0
  2  1  1  0  0  0
  1 10  1  0  0  0
 10 11  1  0  0  0
 11 12  2  0  0  0
 12 13  1  0  0  0
 13 14  2  0  0  0
 14 15  1  0  0  0
 15 16  2  0  0  0
 16 17  1  0  0  0
 17 18  3  0  0  0
  9  5  1  0  0  0
 16 11  1  0  0  0
M  END
> <minimizedAffinity>
-7.35127

> <CNNscore>
0.1587405801

> <CNNaffinity>
5.3676757812

> <CNN_VS>
0.8520679474

$$$$
