FCG18066182_QVINA2_10


 19 20  0  0  0  0  0  0  0  0999 V2000
   14.2610    3.0660   18.3680 C   0  0  0  0  0  0  0  0  0  0  0  0
   14.7100    1.6760   18.6880 C   0  0  0  0  0  0  0  0  0  0  0  0
   13.8990    0.7170   18.5790 O   0  0  0  0  0  0  0  0  0  0  0  0
   16.0760    1.4420   19.0540 N   0  0  0  0  0  0  0  0  0  0  0  0
   17.0280    0.6600   18.3190 C   0  0  0  0  0  0  0  0  0  0  0  0
   16.9670    0.6680   16.9190 C   0  0  0  0  0  0  0  0  0  0  0  0
   17.8910   -0.0640   16.1660 C   0  0  0  0  0  0  0  0  0  0  0  0
   18.8920   -0.7980   16.8080 C   0  0  0  0  0  0  0  0  0  0  0  0
   18.9750   -0.7930   18.2030 C   0  0  0  0  0  0  0  0  0  0  0  0
   18.0530   -0.0620   18.9590 C   0  0  0  0  0  0  0  0  0  0  0  0
   13.2520    3.0790   16.8450 S   0  0  0  0  0  0  0  0  0  0  0  0
   14.6290    3.3390   15.6700 C   0  0  0  0  0  0  0  0  0  0  0  0
   13.4670    2.6470   12.7520 C   0  0  0  0  0  0  0  0  0  0  0  0
   13.7230    4.0030   13.3260 C   0  0  0  0  0  0  0  0  0  0  0  0
   13.5050    5.1520   12.6550 N   0  0  0  0  0  0  0  0  0  0  0  0
   13.8460    6.1280   13.4470 O   0  0  0  0  0  0  0  0  0  0  0  0
   14.2760    5.6760   14.6020 C   0  0  0  0  0  0  0  0  0  0  0  0
   14.7530    6.5460   15.7180 C   0  0  0  0  0  0  0  0  0  0  0  0
   14.2340    4.2940   14.5790 C   0  0  0  0  0  0  0  0  0  0  0  0
 13 14  1  0  0  0
 14 15  2  0  0  0
 15 16  1  0  0  0
 16 17  1  0  0  0
 17 18  1  0  0  0
 17 19  2  0  0  0
 19 12  1  0  0  0
 12 11  1  0  0  0
 11  1  1  0  0  0
  1  2  1  0  0  0
  2  3  2  0  0  0
  2  4  1  0  0  0
  4  5  1  0  0  0
  5  6  2  0  0  0
  6  7  1  0  0  0
  7  8  2  0  0  0
  8  9  1  0  0  0
  9 10  2  0  0  0
 19 14  1  0  0  0
 10  5  1  0  0  0
M  CHG 1   4  -1
M  END
> <minimizedAffinity>
-6.45018

> <CNNscore>
0.3664875329

> <CNNaffinity>
5.6951141357

> <CNN_VS>
2.0871882439

$$$$
FCG18066182_QVINA2_5


 19 20  0  0  0  0  0  0  0  0999 V2000
   14.3580   -4.4750   17.6740 C   0  0  0  0  0  0  0  0  0  0  0  0
   14.3700   -5.8910   18.1540 C   0  0  0  0  0  0  0  0  0  0  0  0
   15.3890   -6.3400   18.7460 O   0  0  0  0  0  0  0  0  0  0  0  0
   13.2010   -6.7030   17.9890 N   0  0  0  0  0  0  0  0  0  0  0  0
   12.1230   -6.8350   18.9270 C   0  0  0  0  0  0  0  0  0  0  0  0
   10.8070   -6.8190   18.4450 C   0  0  0  0  0  0  0  0  0  0  0  0
    9.7300   -6.9660   19.3240 C   0  0  0  0  0  0  0  0  0  0  0  0
    9.9610   -7.1480   20.6900 C   0  0  0  0  0  0  0  0  0  0  0  0
   11.2690   -7.1890   21.1770 C   0  0  0  0  0  0  0  0  0  0  0  0
   12.3500   -7.0420   20.3010 C   0  0  0  0  0  0  0  0  0  0  0  0
   15.5180   -3.4570   18.6500 S   0  0  0  0  0  0  0  0  0  0  0  0
   15.3140   -1.9110   17.6960 C   0  0  0  0  0  0  0  0  0  0  0  0
   17.4090    0.2970   18.7340 C   0  0  0  0  0  0  0  0  0  0  0  0
   17.5210   -0.5520   17.5090 C   0  0  0  0  0  0  0  0  0  0  0  0
   18.5510   -0.4800   16.6420 N   0  0  0  0  0  0  0  0  0  0  0  0
   18.3160   -1.3430   15.6970 O   0  0  0  0  0  0  0  0  0  0  0  0
   17.1840   -1.9760   15.9000 C   0  0  0  0  0  0  0  0  0  0  0  0
   16.6290   -3.0190   14.9860 C   0  0  0  0  0  0  0  0  0  0  0  0
   16.6100   -1.4920   17.0620 C   0  0  0  0  0  0  0  0  0  0  0  0
 13 14  1  0  0  0
 14 15  2  0  0  0
 15 16  1  0  0  0
 16 17  1  0  0  0
 17 18  1  0  0  0
 17 19  2  0  0  0
 19 12  1  0  0  0
 12 11  1  0  0  0
 11  1  1  0  0  0
  1  2  1  0  0  0
  2  3  2  0  0  0
  2  4  1  0  0  0
  4  5  1  0  0  0
  5  6  2  0  0  0
  6  7  1  0  0  0
  7  8  2  0  0  0
  8  9  1  0  0  0
  9 10  2  0  0  0
 19 14  1  0  0  0
 10  5  1  0  0  0
M  CHG 1   4  -1
M  END
> <minimizedAffinity>
-7.23484

> <CNNscore>
0.1389054358

> <CNNaffinity>
5.5363588333

> <CNN_VS>
0.7690303326

$$$$
